<?xml version="1.0"?>
<rdf:RDF
    xmlns:rdf="http://www.w3.org/1999/02/22-rdf-syntax-ns#"
    xmlns:j.0="http://www.wings-workflows.org/ontology/workflow.owl#"
    xmlns:owl="http://www.w3.org/2002/07/owl#"
    xmlns:rdfs="http://www.w3.org/2000/01/rdf-schema#"
    xmlns:xsd="http://www.w3.org/2001/XMLSchema#"
      xml:base="http://localhost:8080/wings-portal/export/users/admin/MINT-DaniLocal-10-4-2018/workflows/library.owl">
      <j.0:WorkflowTemplate rdf:about="MODFLOW-NWT-BUDGET.owl#MODFLOW-NWT-BUDGET"/>
      <j.0:WorkflowTemplate rdf:about="testBS.owl#testBS"/>
      <j.0:WorkflowTemplate rdf:about="PIHM.owl#PIHM"/>
      <j.0:WorkflowTemplate rdf:about="Modflow2005-Rch.owl#Modflow2005-Rch"/>
      <j.0:WorkflowTemplate rdf:about="testM.owl#testM"/>
      <j.0:WorkflowTemplate rdf:about="MODFLOW-NWT.owl#MODFLOW-NWT"/>
      <j.0:WorkflowTemplate rdf:about="MODFLOW-2005.owl#MODFLOW-2005"/>
</rdf:RDF>
