<?xml version="1.0"?>
<rdf:RDF
    xmlns:rdf="http://www.w3.org/1999/02/22-rdf-syntax-ns#"
    xmlns:j.0="http://www.wings-workflows.org/ontology/workflow.owl#"
    xmlns:owl="http://www.w3.org/2002/07/owl#"
    xmlns:rdfs="http://www.w3.org/2000/01/rdf-schema#"
    xmlns:xsd="http://www.w3.org/2001/XMLSchema#"
      xml:base="http://localhost:8080/wings-portal/export/users/admin/MINT-DaniLocal-10-4-2018/workflows/MODFLOW-NWT.owl">
      <owl:Ontology rdf:about="">
            <owl:imports rdf:resource="http://www.wings-workflows.org/ontology/workflow.owl"/>
      </owl:Ontology>
      <j.0:WorkflowTemplate rdf:ID="MODFLOW-NWT">
            <j.0:hasLink>
                  <j.0:OutputLink rdf:ID="MODFLOW-NWT_node_budget_output">
                        <j.0:hasVariable>
                              <j.0:DataVariable rdf:ID="budget">
                                    <rdfs:comment rdf:datatype=
                                    "http://www.w3.org/2001/XMLSchema#string"
                                    >center:x=283.0074157714844,y=290.600830078125</rdfs:comment>
                              </j.0:DataVariable>
                        </j.0:hasVariable>
                        <j.0:hasOriginNode>
                              <j.0:Node rdf:ID="MODFLOW-NWT_node">
                                    <j.0:hasComponent>
                                          <rdf:Description rdf:ID="MODFLOW-NWT_node_comp">
                                                <j.0:isConcrete
                                                 rdf:datatype=
                                                "http://www.w3.org/2001/XMLSchema#boolean"
                                                >true</j.0:isConcrete>
                                                <j.0:hasComponentBinding rdf:resource="../components/library.owl#MODFLOW-NWT"/>
                                          </rdf:Description>
                                    </j.0:hasComponent>
                                    <j.0:hasComponentSetCreationRule>
                                          <j.0:ComponentSetRule rdf:ID="MODFLOW-NWT_node_crule">
                                                <j.0:createSetsOn rdf:resource="#MODFLOW-NWT_node_comp"/>
                                                <j.0:createWorkflowSets
                                                 rdf:datatype=
                                                "http://www.w3.org/2001/XMLSchema#boolean"
                                                >true</j.0:createWorkflowSets>
                                          </j.0:ComponentSetRule>
                                    </j.0:hasComponentSetCreationRule>
                                    <j.0:hasInputPort>
                                          <j.0:Port rdf:ID="MODFLOW-NWT_node_nameFile">
                                                <j.0:satisfiesRole>
                                                      <rdf:Description rdf:ID="MODFLOW-NWT_node_nameFile_role">
                                                            <j.0:hasDimensionality
                                                             rdf:datatype=
                                                            "http://www.w3.org/2001/XMLSchema#integer"
                                                            >0</j.0:hasDimensionality>
                                                            <j.0:hasRoleID
                                                             rdf:datatype=
                                                            "http://www.w3.org/2001/XMLSchema#string"
                                                            >nameFile</j.0:hasRoleID>
                                                      </rdf:Description>
                                                </j.0:satisfiesRole>
                                          </j.0:Port>
                                    </j.0:hasInputPort>
                                    <j.0:hasOutputPort>
                                          <j.0:Port rdf:ID="MODFLOW-NWT_node_budget">
                                                <j.0:satisfiesRole>
                                                      <rdf:Description rdf:ID="MODFLOW-NWT_node_budget_role">
                                                            <j.0:hasDimensionality
                                                             rdf:datatype=
                                                            "http://www.w3.org/2001/XMLSchema#integer"
                                                            >0</j.0:hasDimensionality>
                                                            <j.0:hasRoleID
                                                             rdf:datatype=
                                                            "http://www.w3.org/2001/XMLSchema#string"
                                                            >budget</j.0:hasRoleID>
                                                      </rdf:Description>
                                                </j.0:satisfiesRole>
                                          </j.0:Port>
                                    </j.0:hasOutputPort>
                                    <j.0:hasPortSetCreationRule>
                                          <j.0:PortSetRule rdf:ID="MODFLOW-NWT_node_prule">
                                                <j.0:createSetsOn>
                                                      <j.0:XProduct rdf:ID="_xprod-578fd5ba-2ea8-4df2-8d9f-ede0b4be3a0b">
                                                            <j.0:hasExpressionArgument rdf:resource="#MODFLOW-NWT_node_nameFile"/>
                                                      </j.0:XProduct>
                                                </j.0:createSetsOn>
                                                <j.0:createComponentSets
                                                 rdf:datatype=
                                                "http://www.w3.org/2001/XMLSchema#boolean"
                                                >true</j.0:createComponentSets>
                                          </j.0:PortSetRule>
                                    </j.0:hasPortSetCreationRule>
                                    <rdfs:comment rdf:datatype=
                                    "http://www.w3.org/2001/XMLSchema#string"
                                    >center:x=275,y=184</rdfs:comment>
                              </j.0:Node>
                        </j.0:hasOriginNode>
                        <j.0:hasOriginPort rdf:resource="#MODFLOW-NWT_node_budget"/>
                  </j.0:OutputLink>
            </j.0:hasLink>
            <j.0:hasMetadata>
                  <j.0:Metadata rdf:ID="MODFLOW-NWT_meta">
                        <j.0:hasContributor rdf:datatype="http://www.w3.org/2001/XMLSchema#string"
                        >admin</j.0:hasContributor>
                        <j.0:lastUpdateTime rdf:datatype="http://www.w3.org/2001/XMLSchema#dateTime"
                        >2018-04-10T00:00:00Z</j.0:lastUpdateTime>
                  </j.0:Metadata>
            </j.0:hasMetadata>
            <j.0:hasNode rdf:resource="#MODFLOW-NWT_node"/>
            <j.0:hasOutputRole>
                  <j.0:Role rdf:ID="budget_orole">
                        <j.0:hasDimensionality rdf:datatype="http://www.w3.org/2001/XMLSchema#integer"
                        >0</j.0:hasDimensionality>
                        <j.0:mapsToVariable rdf:resource="#budget"/>
                        <j.0:hasRoleID rdf:datatype="http://www.w3.org/2001/XMLSchema#string"
                        >budget</j.0:hasRoleID>
                  </j.0:Role>
            </j.0:hasOutputRole>
            <j.0:hasVersion rdf:datatype="http://www.w3.org/2001/XMLSchema#integer"
            >3</j.0:hasVersion>
            <j.0:hasInputRole>
                  <j.0:Role rdf:ID="nameFile_irole">
                        <j.0:hasDimensionality rdf:datatype="http://www.w3.org/2001/XMLSchema#integer"
                        >0</j.0:hasDimensionality>
                        <j.0:mapsToVariable>
                              <j.0:DataVariable rdf:ID="nameFile">
                                    <rdfs:comment rdf:datatype=
                                    "http://www.w3.org/2001/XMLSchema#string"
                                    >center:x=268.00701904296875,y=68.4083251953125</rdfs:comment>
                              </j.0:DataVariable>
                        </j.0:mapsToVariable>
                        <j.0:hasRoleID rdf:datatype="http://www.w3.org/2001/XMLSchema#string"
                        >MODFLOW-NWT_node_nameFile</j.0:hasRoleID>
                  </j.0:Role>
            </j.0:hasInputRole>
            <j.0:hasLink>
                  <j.0:InputLink rdf:ID="MODFLOW-NWT_node_nameFile_input">
                        <j.0:hasVariable rdf:resource="#nameFile"/>
                        <j.0:hasDestinationNode rdf:resource="#MODFLOW-NWT_node"/>
                        <j.0:hasDestinationPort rdf:resource="#MODFLOW-NWT_node_nameFile"/>
                  </j.0:InputLink>
            </j.0:hasLink>
      </j.0:WorkflowTemplate>
</rdf:RDF>
