<?xml version="1.0"?>
<rdf:RDF
    xmlns:rdf="http://www.w3.org/1999/02/22-rdf-syntax-ns#"
    xmlns:j.0="http://www.wings-workflows.org/ontology/workflow.owl#"
    xmlns:owl="http://www.w3.org/2002/07/owl#"
    xmlns:rdfs="http://www.w3.org/2000/01/rdf-schema#"
    xmlns:xsd="http://www.w3.org/2001/XMLSchema#"
      xml:base="http://localhost:8080/wings-portal/export/users/admin/MINT-DaniLocal-10-4-2018/workflows/MODFLOW-NWT-BUDGET.owl">
      <owl:Ontology rdf:about="">
            <owl:imports rdf:resource="http://www.wings-workflows.org/ontology/workflow.owl"/>
      </owl:Ontology>
      <j.0:WorkflowTemplate rdf:ID="MODFLOW-NWT-BUDGET">
            <j.0:hasMetadata>
                  <j.0:Metadata rdf:ID="MODFLOW-NWT-BUDGET_meta">
                        <j.0:hasContributor rdf:datatype="http://www.w3.org/2001/XMLSchema#string"
                        >admin</j.0:hasContributor>
                        <j.0:lastUpdateTime rdf:datatype="http://www.w3.org/2001/XMLSchema#dateTime"
                        >2018-04-10T00:00:00Z</j.0:lastUpdateTime>
                  </j.0:Metadata>
            </j.0:hasMetadata>
            <j.0:hasLink>
                  <j.0:InputLink rdf:ID="ZoneBudget_node_zoneMap_input">
                        <j.0:hasVariable>
                              <j.0:DataVariable rdf:ID="zoneMap">
                                    <rdfs:comment rdf:datatype=
                                    "http://www.w3.org/2001/XMLSchema#string"
                                    >center:x=183.79648571014405,y=176.65537548065186</rdfs:comment>
                              </j.0:DataVariable>
                        </j.0:hasVariable>
                        <j.0:hasDestinationNode>
                              <j.0:Node rdf:ID="ZoneBudget_node">
                                    <j.0:hasComponentSetCreationRule>
                                          <j.0:ComponentSetRule rdf:ID="ZoneBudget_node_crule">
                                                <j.0:createSetsOn>
                                                      <rdf:Description rdf:ID="ZoneBudget_node_comp">
                                                            <j.0:isConcrete
                                                             rdf:datatype=
                                                            "http://www.w3.org/2001/XMLSchema#boolean"
                                                            >true</j.0:isConcrete>
                                                            <j.0:hasComponentBinding rdf:resource="../components/library.owl#ZoneBudget"/>
                                                      </rdf:Description>
                                                </j.0:createSetsOn>
                                                <j.0:createWorkflowSets
                                                 rdf:datatype=
                                                "http://www.w3.org/2001/XMLSchema#boolean"
                                                >true</j.0:createWorkflowSets>
                                          </j.0:ComponentSetRule>
                                    </j.0:hasComponentSetCreationRule>
                                    <j.0:hasInputPort>
                                          <j.0:Port rdf:ID="ZoneBudget_node_budget">
                                                <j.0:satisfiesRole>
                                                      <rdf:Description rdf:ID="ZoneBudget_node_budget_role">
                                                            <j.0:hasDimensionality
                                                             rdf:datatype=
                                                            "http://www.w3.org/2001/XMLSchema#integer"
                                                            >0</j.0:hasDimensionality>
                                                            <j.0:hasRoleID
                                                             rdf:datatype=
                                                            "http://www.w3.org/2001/XMLSchema#string"
                                                            >budget</j.0:hasRoleID>
                                                      </rdf:Description>
                                                </j.0:satisfiesRole>
                                          </j.0:Port>
                                    </j.0:hasInputPort>
                                    <j.0:hasInputPort>
                                          <j.0:Port rdf:ID="ZoneBudget_node_zoneMap">
                                                <j.0:satisfiesRole>
                                                      <rdf:Description rdf:ID="ZoneBudget_node_zoneMap_role">
                                                            <j.0:hasDimensionality
                                                             rdf:datatype=
                                                            "http://www.w3.org/2001/XMLSchema#integer"
                                                            >0</j.0:hasDimensionality>
                                                            <j.0:hasRoleID
                                                             rdf:datatype=
                                                            "http://www.w3.org/2001/XMLSchema#string"
                                                            >zoneMap</j.0:hasRoleID>
                                                      </rdf:Description>
                                                </j.0:satisfiesRole>
                                          </j.0:Port>
                                    </j.0:hasInputPort>
                                    <j.0:hasOutputPort>
                                          <j.0:Port rdf:ID="ZoneBudget_node_extractedBudget">
                                                <j.0:satisfiesRole>
                                                      <rdf:Description rdf:ID="ZoneBudget_node_extractedBudget_role">
                                                            <j.0:hasDimensionality
                                                             rdf:datatype=
                                                            "http://www.w3.org/2001/XMLSchema#integer"
                                                            >0</j.0:hasDimensionality>
                                                            <j.0:hasRoleID
                                                             rdf:datatype=
                                                            "http://www.w3.org/2001/XMLSchema#string"
                                                            >extractedBudget</j.0:hasRoleID>
                                                      </rdf:Description>
                                                </j.0:satisfiesRole>
                                          </j.0:Port>
                                    </j.0:hasOutputPort>
                                    <j.0:hasPortSetCreationRule>
                                          <j.0:PortSetRule rdf:ID="ZoneBudget_node_prule">
                                                <j.0:createSetsOn>
                                                      <j.0:XProduct rdf:ID="_xprod-11d32d1d-f839-4416-a0ec-189c18c8daed">
                                                            <j.0:hasExpressionArgument rdf:resource="#ZoneBudget_node_budget"/>
                                                            <j.0:hasExpressionArgument rdf:resource="#ZoneBudget_node_zoneMap"/>
                                                      </j.0:XProduct>
                                                </j.0:createSetsOn>
                                                <j.0:createComponentSets
                                                 rdf:datatype=
                                                "http://www.w3.org/2001/XMLSchema#boolean"
                                                >true</j.0:createComponentSets>
                                          </j.0:PortSetRule>
                                    </j.0:hasPortSetCreationRule>
                                    <rdfs:comment rdf:datatype=
                                    "http://www.w3.org/2001/XMLSchema#string"
                                    >center:x=144.19647626876832,y=249.98975658416748</rdfs:comment>
                                    <j.0:hasComponent rdf:resource="#ZoneBudget_node_comp"/>
                              </j.0:Node>
                        </j.0:hasDestinationNode>
                        <j.0:hasDestinationPort rdf:resource="#ZoneBudget_node_zoneMap"/>
                  </j.0:InputLink>
            </j.0:hasLink>
            <j.0:hasInputRole>
                  <j.0:Role rdf:ID="zoneMap_irole">
                        <j.0:hasDimensionality rdf:datatype="http://www.w3.org/2001/XMLSchema#integer"
                        >0</j.0:hasDimensionality>
                        <j.0:mapsToVariable rdf:resource="#zoneMap"/>
                        <j.0:hasRoleID rdf:datatype="http://www.w3.org/2001/XMLSchema#string"
                        >ZoneBudget_node_zoneMap</j.0:hasRoleID>
                  </j.0:Role>
            </j.0:hasInputRole>
            <j.0:hasOutputRole>
                  <j.0:Role rdf:ID="extractedBudget_orole">
                        <j.0:hasDimensionality rdf:datatype="http://www.w3.org/2001/XMLSchema#integer"
                        >0</j.0:hasDimensionality>
                        <j.0:mapsToVariable>
                              <j.0:DataVariable rdf:ID="extractedBudget">
                                    <rdfs:comment rdf:datatype=
                                    "http://www.w3.org/2001/XMLSchema#string"
                                    >center:x=144.19647626876832,y=323.3241605758667</rdfs:comment>
                              </j.0:DataVariable>
                        </j.0:mapsToVariable>
                        <j.0:hasRoleID rdf:datatype="http://www.w3.org/2001/XMLSchema#string"
                        >extractedBudget</j.0:hasRoleID>
                  </j.0:Role>
            </j.0:hasOutputRole>
            <j.0:hasLink>
                  <j.0:OutputLink rdf:ID="ZoneBudget_node_extractedBudget_output">
                        <j.0:hasVariable rdf:resource="#extractedBudget"/>
                        <j.0:hasOriginNode rdf:resource="#ZoneBudget_node"/>
                        <j.0:hasOriginPort rdf:resource="#ZoneBudget_node_extractedBudget"/>
                  </j.0:OutputLink>
            </j.0:hasLink>
            <j.0:hasInputRole>
                  <j.0:Role rdf:ID="nameFile_irole">
                        <j.0:hasDimensionality rdf:datatype="http://www.w3.org/2001/XMLSchema#integer"
                        >0</j.0:hasDimensionality>
                        <j.0:mapsToVariable>
                              <j.0:DataVariable rdf:ID="nameFile">
                                    <rdfs:comment rdf:datatype=
                                    "http://www.w3.org/2001/XMLSchema#string"
                                    >center:x=104.59647626876831,y=29.991374015808105</rdfs:comment>
                              </j.0:DataVariable>
                        </j.0:mapsToVariable>
                        <j.0:hasRoleID rdf:datatype="http://www.w3.org/2001/XMLSchema#string"
                        >MODFLOW-NWT_node_nameFile</j.0:hasRoleID>
                  </j.0:Role>
            </j.0:hasInputRole>
            <j.0:hasNode>
                  <j.0:Node rdf:ID="MODFLOW-NWT_node">
                        <j.0:hasComponent>
                              <rdf:Description rdf:ID="MODFLOW-NWT_node_comp">
                                    <j.0:isConcrete rdf:datatype=
                                    "http://www.w3.org/2001/XMLSchema#boolean"
                                    >true</j.0:isConcrete>
                                    <j.0:hasComponentBinding rdf:resource="../components/library.owl#MODFLOW-NWT"/>
                              </rdf:Description>
                        </j.0:hasComponent>
                        <j.0:hasComponentSetCreationRule>
                              <j.0:ComponentSetRule rdf:ID="MODFLOW-NWT_node_crule">
                                    <j.0:createSetsOn rdf:resource="#MODFLOW-NWT_node_comp"/>
                                    <j.0:createWorkflowSets rdf:datatype=
                                    "http://www.w3.org/2001/XMLSchema#boolean"
                                    >true</j.0:createWorkflowSets>
                              </j.0:ComponentSetRule>
                        </j.0:hasComponentSetCreationRule>
                        <j.0:hasInputPort>
                              <j.0:Port rdf:ID="MODFLOW-NWT_node_nameFile">
                                    <j.0:satisfiesRole>
                                          <rdf:Description rdf:ID="MODFLOW-NWT_node_nameFile_role">
                                                <j.0:hasDimensionality
                                                 rdf:datatype=
                                                "http://www.w3.org/2001/XMLSchema#integer"
                                                >0</j.0:hasDimensionality>
                                                <j.0:hasRoleID
                                                 rdf:datatype=
                                                "http://www.w3.org/2001/XMLSchema#string"
                                                >nameFile</j.0:hasRoleID>
                                          </rdf:Description>
                                    </j.0:satisfiesRole>
                              </j.0:Port>
                        </j.0:hasInputPort>
                        <j.0:hasOutputPort>
                              <j.0:Port rdf:ID="MODFLOW-NWT_node_budget">
                                    <j.0:satisfiesRole>
                                          <rdf:Description rdf:ID="MODFLOW-NWT_node_budget_role">
                                                <j.0:hasDimensionality
                                                 rdf:datatype=
                                                "http://www.w3.org/2001/XMLSchema#integer"
                                                >0</j.0:hasDimensionality>
                                                <j.0:hasRoleID
                                                 rdf:datatype=
                                                "http://www.w3.org/2001/XMLSchema#string"
                                                >budget</j.0:hasRoleID>
                                          </rdf:Description>
                                    </j.0:satisfiesRole>
                              </j.0:Port>
                        </j.0:hasOutputPort>
                        <j.0:hasPortSetCreationRule>
                              <j.0:PortSetRule rdf:ID="MODFLOW-NWT_node_prule">
                                    <j.0:createSetsOn>
                                          <j.0:XProduct rdf:ID="_xprod-c859e5af-2a72-464e-a05d-0a3eaa685210">
                                                <j.0:hasExpressionArgument rdf:resource="#MODFLOW-NWT_node_nameFile"/>
                                          </j.0:XProduct>
                                    </j.0:createSetsOn>
                                    <j.0:createComponentSets rdf:datatype=
                                    "http://www.w3.org/2001/XMLSchema#boolean"
                                    >true</j.0:createComponentSets>
                              </j.0:PortSetRule>
                        </j.0:hasPortSetCreationRule>
                        <rdfs:comment rdf:datatype="http://www.w3.org/2001/XMLSchema#string"
                        >center:x=104.59647626876831,y=103.32094860076904</rdfs:comment>
                  </j.0:Node>
            </j.0:hasNode>
            <j.0:hasLink>
                  <j.0:OutputLink rdf:ID="MODFLOW-NWT_node_budget_output">
                        <j.0:hasVariable>
                              <j.0:DataVariable rdf:ID="budget">
                                    <rdfs:comment rdf:datatype=
                                    "http://www.w3.org/2001/XMLSchema#string"
                                    >center:x=103.5035237312317,y=176.65537548065186</rdfs:comment>
                              </j.0:DataVariable>
                        </j.0:hasVariable>
                        <j.0:hasOriginNode rdf:resource="#MODFLOW-NWT_node"/>
                        <j.0:hasOriginPort rdf:resource="#MODFLOW-NWT_node_budget"/>
                  </j.0:OutputLink>
            </j.0:hasLink>
            <j.0:hasNode rdf:resource="#ZoneBudget_node"/>
            <j.0:hasLink>
                  <j.0:InputLink rdf:ID="MODFLOW-NWT_node_nameFile_input">
                        <j.0:hasVariable rdf:resource="#nameFile"/>
                        <j.0:hasDestinationNode rdf:resource="#MODFLOW-NWT_node"/>
                        <j.0:hasDestinationPort rdf:resource="#MODFLOW-NWT_node_nameFile"/>
                  </j.0:InputLink>
            </j.0:hasLink>
            <j.0:hasNode>
                  <j.0:Node rdf:ID="BudgetVisualization_node">
                        <j.0:hasComponent>
                              <rdf:Description rdf:ID="BudgetVisualization_node_comp">
                                    <j.0:isConcrete rdf:datatype=
                                    "http://www.w3.org/2001/XMLSchema#boolean"
                                    >true</j.0:isConcrete>
                                    <j.0:hasComponentBinding rdf:resource="../components/library.owl#BudgetVisualization"/>
                              </rdf:Description>
                        </j.0:hasComponent>
                        <j.0:hasComponentSetCreationRule>
                              <j.0:ComponentSetRule rdf:ID="BudgetVisualization_node_crule">
                                    <j.0:createSetsOn rdf:resource="#BudgetVisualization_node_comp"/>
                                    <j.0:createWorkflowSets rdf:datatype=
                                    "http://www.w3.org/2001/XMLSchema#boolean"
                                    >true</j.0:createWorkflowSets>
                              </j.0:ComponentSetRule>
                        </j.0:hasComponentSetCreationRule>
                        <j.0:hasInputPort>
                              <j.0:Port rdf:ID="BudgetVisualization_node_processedBudget">
                                    <j.0:satisfiesRole>
                                          <rdf:Description rdf:ID="BudgetVisualization_node_processedBudget_role">
                                                <j.0:hasDimensionality
                                                 rdf:datatype=
                                                "http://www.w3.org/2001/XMLSchema#integer"
                                                >0</j.0:hasDimensionality>
                                                <j.0:hasRoleID
                                                 rdf:datatype=
                                                "http://www.w3.org/2001/XMLSchema#string"
                                                >processedBudget</j.0:hasRoleID>
                                          </rdf:Description>
                                    </j.0:satisfiesRole>
                              </j.0:Port>
                        </j.0:hasInputPort>
                        <j.0:hasOutputPort>
                              <j.0:Port rdf:ID="BudgetVisualization_node_visualization">
                                    <j.0:satisfiesRole>
                                          <rdf:Description rdf:ID="BudgetVisualization_node_visualization_role">
                                                <j.0:hasDimensionality
                                                 rdf:datatype=
                                                "http://www.w3.org/2001/XMLSchema#integer"
                                                >0</j.0:hasDimensionality>
                                                <j.0:hasRoleID
                                                 rdf:datatype=
                                                "http://www.w3.org/2001/XMLSchema#string"
                                                >visualization</j.0:hasRoleID>
                                          </rdf:Description>
                                    </j.0:satisfiesRole>
                              </j.0:Port>
                        </j.0:hasOutputPort>
                        <j.0:hasPortSetCreationRule>
                              <j.0:PortSetRule rdf:ID="BudgetVisualization_node_prule">
                                    <j.0:createSetsOn>
                                          <j.0:XProduct rdf:ID="_xprod-4529870f-53d1-4429-8592-a09dfa1b66ef">
                                                <j.0:hasExpressionArgument rdf:resource="#BudgetVisualization_node_processedBudget"/>
                                          </j.0:XProduct>
                                    </j.0:createSetsOn>
                                    <j.0:createComponentSets rdf:datatype=
                                    "http://www.w3.org/2001/XMLSchema#boolean"
                                    >true</j.0:createComponentSets>
                              </j.0:PortSetRule>
                        </j.0:hasPortSetCreationRule>
                        <rdfs:comment rdf:datatype="http://www.w3.org/2001/XMLSchema#string"
                        >center:x=143.10352373123172,y=396.65376377105713</rdfs:comment>
                  </j.0:Node>
            </j.0:hasNode>
            <j.0:hasOutputRole>
                  <j.0:Role rdf:ID="visualization_orole">
                        <j.0:hasDimensionality rdf:datatype="http://www.w3.org/2001/XMLSchema#integer"
                        >0</j.0:hasDimensionality>
                        <j.0:mapsToVariable>
                              <j.0:DataVariable rdf:ID="visualization">
                                    <rdfs:comment rdf:datatype=
                                    "http://www.w3.org/2001/XMLSchema#string"
                                    >center:x=144.19647626876832,y=469.98912620544434</rdfs:comment>
                              </j.0:DataVariable>
                        </j.0:mapsToVariable>
                        <j.0:hasRoleID rdf:datatype="http://www.w3.org/2001/XMLSchema#string"
                        >visualization</j.0:hasRoleID>
                  </j.0:Role>
            </j.0:hasOutputRole>
            <j.0:hasLink>
                  <j.0:OutputLink rdf:ID="BudgetVisualization_node_visualization_output">
                        <j.0:hasVariable rdf:resource="#visualization"/>
                        <j.0:hasOriginNode rdf:resource="#BudgetVisualization_node"/>
                        <j.0:hasOriginPort rdf:resource="#BudgetVisualization_node_visualization"/>
                  </j.0:OutputLink>
            </j.0:hasLink>
            <j.0:hasVersion rdf:datatype="http://www.w3.org/2001/XMLSchema#integer"
            >3</j.0:hasVersion>
            <j.0:hasLink>
                  <j.0:InOutLink rdf:ID="MODFLOW-NWT_node_budget_to_ZoneBudget_node_budget">
                        <j.0:hasDestinationNode rdf:resource="#ZoneBudget_node"/>
                        <j.0:hasDestinationPort rdf:resource="#ZoneBudget_node_budget"/>
                        <j.0:hasOriginNode rdf:resource="#MODFLOW-NWT_node"/>
                        <j.0:hasOriginPort rdf:resource="#MODFLOW-NWT_node_budget"/>
                        <j.0:hasVariable rdf:resource="#budget"/>
                  </j.0:InOutLink>
            </j.0:hasLink>
            <j.0:hasLink>
                  <j.0:InOutLink rdf:ID="ZoneBudget_node_extractedBudget_to_BudgetVisualization_node_processedBudget">
                        <j.0:hasDestinationNode rdf:resource="#BudgetVisualization_node"/>
                        <j.0:hasDestinationPort rdf:resource="#BudgetVisualization_node_processedBudget"/>
                        <j.0:hasOriginNode rdf:resource="#ZoneBudget_node"/>
                        <j.0:hasOriginPort rdf:resource="#ZoneBudget_node_extractedBudget"/>
                        <j.0:hasVariable rdf:resource="#extractedBudget"/>
                  </j.0:InOutLink>
            </j.0:hasLink>
            <j.0:hasOutputRole>
                  <j.0:Role rdf:ID="budget_orole">
                        <j.0:hasDimensionality rdf:datatype="http://www.w3.org/2001/XMLSchema#integer"
                        >0</j.0:hasDimensionality>
                        <j.0:mapsToVariable rdf:resource="#budget"/>
                        <j.0:hasRoleID rdf:datatype="http://www.w3.org/2001/XMLSchema#string"
                        >budget</j.0:hasRoleID>
                  </j.0:Role>
            </j.0:hasOutputRole>
      </j.0:WorkflowTemplate>
</rdf:RDF>
