<?xml version="1.0"?>
<rdf:RDF
    xmlns:rdf="http://www.w3.org/1999/02/22-rdf-syntax-ns#"
    xmlns:j.0="http://www.wings-workflows.org/ontology/workflow.owl#"
    xmlns:owl="http://www.w3.org/2002/07/owl#"
    xmlns:rdfs="http://www.w3.org/2000/01/rdf-schema#"
    xmlns:xsd="http://www.w3.org/2001/XMLSchema#"
      xml:base="http://localhost:8080/wings-portal/export/users/admin/MINT-DaniLocal-10-4-2018/workflows/testBS.owl">
      <owl:Ontology rdf:about="">
            <owl:imports rdf:resource="http://www.wings-workflows.org/ontology/workflow.owl"/>
      </owl:Ontology>
      <j.0:WorkflowTemplate rdf:ID="testBS">
            <j.0:hasInputRole>
                  <j.0:Role rdf:ID="Well_irole">
                        <j.0:hasDimensionality rdf:datatype="http://www.w3.org/2001/XMLSchema#integer"
                        >0</j.0:hasDimensionality>
                        <j.0:mapsToVariable>
                              <j.0:DataVariable rdf:ID="Well">
                                    <rdfs:comment rdf:datatype=
                                    "http://www.w3.org/2001/XMLSchema#string"
                                    >center:x=648.0035331726075,y=30.00095272064209</rdfs:comment>
                              </j.0:DataVariable>
                        </j.0:mapsToVariable>
                        <j.0:hasRoleID rdf:datatype="http://www.w3.org/2001/XMLSchema#string"
                        >MODFLOW-2005-RCH_node_Well</j.0:hasRoleID>
                  </j.0:Role>
            </j.0:hasInputRole>
            <j.0:hasLink>
                  <j.0:InputLink rdf:ID="MODFLOW-2005-RCH_node_Drn_input">
                        <j.0:hasVariable>
                              <j.0:DataVariable rdf:ID="Drn">
                                    <rdfs:comment rdf:datatype=
                                    "http://www.w3.org/2001/XMLSchema#string"
                                    >center:x=264.0973690032959,y=30.00095272064209</rdfs:comment>
                              </j.0:DataVariable>
                        </j.0:hasVariable>
                        <j.0:hasDestinationNode>
                              <j.0:Node rdf:ID="MODFLOW-2005-RCH_node">
                                    <j.0:hasInputPort>
                                          <j.0:Port rdf:ID="MODFLOW-2005-RCH_node_Sip">
                                                <j.0:satisfiesRole>
                                                      <rdf:Description rdf:ID="MODFLOW-2005-RCH_node_Sip_role">
                                                            <j.0:hasDimensionality
                                                             rdf:datatype=
                                                            "http://www.w3.org/2001/XMLSchema#integer"
                                                            >0</j.0:hasDimensionality>
                                                            <j.0:hasRoleID
                                                             rdf:datatype=
                                                            "http://www.w3.org/2001/XMLSchema#string"
                                                            >Sip</j.0:hasRoleID>
                                                      </rdf:Description>
                                                </j.0:satisfiesRole>
                                          </j.0:Port>
                                    </j.0:hasInputPort>
                                    <j.0:hasInputPort>
                                          <j.0:Port rdf:ID="MODFLOW-2005-RCH_node_Drn">
                                                <j.0:satisfiesRole>
                                                      <rdf:Description rdf:ID="MODFLOW-2005-RCH_node_Drn_role">
                                                            <j.0:hasDimensionality
                                                             rdf:datatype=
                                                            "http://www.w3.org/2001/XMLSchema#integer"
                                                            >0</j.0:hasDimensionality>
                                                            <j.0:hasRoleID
                                                             rdf:datatype=
                                                            "http://www.w3.org/2001/XMLSchema#string"
                                                            >Drn</j.0:hasRoleID>
                                                      </rdf:Description>
                                                </j.0:satisfiesRole>
                                          </j.0:Port>
                                    </j.0:hasInputPort>
                                    <j.0:hasInputPort>
                                          <j.0:Port rdf:ID="MODFLOW-2005-RCH_node_Bas">
                                                <j.0:satisfiesRole>
                                                      <rdf:Description rdf:ID="MODFLOW-2005-RCH_node_Bas_role">
                                                            <j.0:hasDimensionality
                                                             rdf:datatype=
                                                            "http://www.w3.org/2001/XMLSchema#integer"
                                                            >0</j.0:hasDimensionality>
                                                            <j.0:hasRoleID
                                                             rdf:datatype=
                                                            "http://www.w3.org/2001/XMLSchema#string"
                                                            >Bas</j.0:hasRoleID>
                                                      </rdf:Description>
                                                </j.0:satisfiesRole>
                                          </j.0:Port>
                                    </j.0:hasInputPort>
                                    <j.0:hasInputPort>
                                          <j.0:Port rdf:ID="MODFLOW-2005-RCH_node_Oc">
                                                <j.0:satisfiesRole>
                                                      <rdf:Description rdf:ID="MODFLOW-2005-RCH_node_Oc_role">
                                                            <j.0:hasDimensionality
                                                             rdf:datatype=
                                                            "http://www.w3.org/2001/XMLSchema#integer"
                                                            >0</j.0:hasDimensionality>
                                                            <j.0:hasRoleID
                                                             rdf:datatype=
                                                            "http://www.w3.org/2001/XMLSchema#string"
                                                            >Oc</j.0:hasRoleID>
                                                      </rdf:Description>
                                                </j.0:satisfiesRole>
                                          </j.0:Port>
                                    </j.0:hasInputPort>
                                    <j.0:hasOutputPort>
                                          <j.0:Port rdf:ID="MODFLOW-2005-RCH_node_ddown">
                                                <j.0:satisfiesRole>
                                                      <rdf:Description rdf:ID="MODFLOW-2005-RCH_node_ddown_role">
                                                            <j.0:hasDimensionality
                                                             rdf:datatype=
                                                            "http://www.w3.org/2001/XMLSchema#integer"
                                                            >0</j.0:hasDimensionality>
                                                            <j.0:hasRoleID
                                                             rdf:datatype=
                                                            "http://www.w3.org/2001/XMLSchema#string"
                                                            >ddown</j.0:hasRoleID>
                                                      </rdf:Description>
                                                </j.0:satisfiesRole>
                                          </j.0:Port>
                                    </j.0:hasOutputPort>
                                    <j.0:hasOutputPort>
                                          <j.0:Port rdf:ID="MODFLOW-2005-RCH_node_list">
                                                <j.0:satisfiesRole>
                                                      <rdf:Description rdf:ID="MODFLOW-2005-RCH_node_list_role">
                                                            <j.0:hasDimensionality
                                                             rdf:datatype=
                                                            "http://www.w3.org/2001/XMLSchema#integer"
                                                            >0</j.0:hasDimensionality>
                                                            <j.0:hasRoleID
                                                             rdf:datatype=
                                                            "http://www.w3.org/2001/XMLSchema#string"
                                                            >list</j.0:hasRoleID>
                                                      </rdf:Description>
                                                </j.0:satisfiesRole>
                                          </j.0:Port>
                                    </j.0:hasOutputPort>
                                    <j.0:hasPortSetCreationRule>
                                          <j.0:PortSetRule rdf:ID="MODFLOW-2005-RCH_node_prule">
                                                <j.0:createSetsOn>
                                                      <j.0:XProduct rdf:ID="_xprod-af0167fb-a66b-49fb-adc0-b04e08165782">
                                                            <j.0:hasExpressionArgument rdf:resource="#MODFLOW-2005-RCH_node_Drn"/>
                                                            <j.0:hasExpressionArgument>
                                                            
      <j.0:Port rdf:ID="MODFLOW-2005-RCH_node_Dis">
            <j.0:satisfiesRole>
                  <rdf:Description rdf:ID="MODFLOW-2005-RCH_node_Dis_role">
                        <j.0:hasDimensionality rdf:datatype="http://www.w3.org/2001/XMLSchema#integer"
                        >0</j.0:hasDimensionality>
                        <j.0:hasRoleID rdf:datatype="http://www.w3.org/2001/XMLSchema#string"
                        >Dis</j.0:hasRoleID>
                  </rdf:Description>
            </j.0:satisfiesRole>
      </j.0:Port>                                           </j.0:hasExpressionArgument>
                                                            <j.0:hasExpressionArgument>
                                                            
      <j.0:Port rdf:ID="MODFLOW-2005-RCH_node_Well">
            <j.0:satisfiesRole>
                  <rdf:Description rdf:ID="MODFLOW-2005-RCH_node_Well_role">
                        <j.0:hasDimensionality rdf:datatype="http://www.w3.org/2001/XMLSchema#integer"
                        >0</j.0:hasDimensionality>
                        <j.0:hasRoleID rdf:datatype="http://www.w3.org/2001/XMLSchema#string"
                        >Well</j.0:hasRoleID>
                  </rdf:Description>
            </j.0:satisfiesRole>
      </j.0:Port>                                           </j.0:hasExpressionArgument>
                                                            <j.0:hasExpressionArgument rdf:resource="#MODFLOW-2005-RCH_node_Sip"/>
                                                            <j.0:hasExpressionArgument rdf:resource="#MODFLOW-2005-RCH_node_Bas"/>
                                                            <j.0:hasExpressionArgument>
                                                            
      <j.0:Port rdf:ID="MODFLOW-2005-RCH_node_Bcf">
            <j.0:satisfiesRole>
                  <rdf:Description rdf:ID="MODFLOW-2005-RCH_node_Bcf_role">
                        <j.0:hasDimensionality rdf:datatype="http://www.w3.org/2001/XMLSchema#integer"
                        >0</j.0:hasDimensionality>
                        <j.0:hasRoleID rdf:datatype="http://www.w3.org/2001/XMLSchema#string"
                        >Bcf</j.0:hasRoleID>
                  </rdf:Description>
            </j.0:satisfiesRole>
      </j.0:Port>                                           </j.0:hasExpressionArgument>
                                                            <j.0:hasExpressionArgument rdf:resource="#MODFLOW-2005-RCH_node_Oc"/>
                                                            <j.0:hasExpressionArgument>
                                                            
      <j.0:Port rdf:ID="MODFLOW-2005-RCH_node_Hfb">
            <j.0:satisfiesRole>
                  <rdf:Description rdf:ID="MODFLOW-2005-RCH_node_Hfb_role">
                        <j.0:hasDimensionality rdf:datatype="http://www.w3.org/2001/XMLSchema#integer"
                        >0</j.0:hasDimensionality>
                        <j.0:hasRoleID rdf:datatype="http://www.w3.org/2001/XMLSchema#string"
                        >Hfb</j.0:hasRoleID>
                  </rdf:Description>
            </j.0:satisfiesRole>
      </j.0:Port>                                           </j.0:hasExpressionArgument>
                                                            <j.0:hasExpressionArgument>
                                                            
      <j.0:Port rdf:ID="MODFLOW-2005-RCH_node_Recharge">
            <j.0:satisfiesRole>
                  <rdf:Description rdf:ID="MODFLOW-2005-RCH_node_Recharge_role">
                        <j.0:hasDimensionality rdf:datatype="http://www.w3.org/2001/XMLSchema#integer"
                        >0</j.0:hasDimensionality>
                        <j.0:hasRoleID rdf:datatype="http://www.w3.org/2001/XMLSchema#string"
                        >Recharge</j.0:hasRoleID>
                  </rdf:Description>
            </j.0:satisfiesRole>
      </j.0:Port>                                           </j.0:hasExpressionArgument>
                                                      </j.0:XProduct>
                                                </j.0:createSetsOn>
                                                <j.0:createComponentSets
                                                 rdf:datatype=
                                                "http://www.w3.org/2001/XMLSchema#boolean"
                                                >true</j.0:createComponentSets>
                                          </j.0:PortSetRule>
                                    </j.0:hasPortSetCreationRule>
                                    <j.0:hasInputPort rdf:resource="#MODFLOW-2005-RCH_node_Well"/>
                                    <j.0:hasComponentSetCreationRule>
                                          <j.0:ComponentSetRule rdf:ID="MODFLOW-2005-RCH_node_crule">
                                                <j.0:createSetsOn>
                                                      <rdf:Description rdf:ID="MODFLOW-2005-RCH_node_comp">
                                                            <j.0:isConcrete
                                                             rdf:datatype=
                                                            "http://www.w3.org/2001/XMLSchema#boolean"
                                                            >true</j.0:isConcrete>
                                                            <j.0:hasComponentBinding rdf:resource="../components/library.owl#MODFLOW-2005-RCH"/>
                                                      </rdf:Description>
                                                </j.0:createSetsOn>
                                                <j.0:createWorkflowSets
                                                 rdf:datatype=
                                                "http://www.w3.org/2001/XMLSchema#boolean"
                                                >true</j.0:createWorkflowSets>
                                          </j.0:ComponentSetRule>
                                    </j.0:hasComponentSetCreationRule>
                                    <j.0:hasComponent rdf:resource="#MODFLOW-2005-RCH_node_comp"/>
                                    <j.0:hasOutputPort>
                                          <j.0:Port rdf:ID="MODFLOW-2005-RCH_node_heads">
                                                <j.0:satisfiesRole>
                                                      <rdf:Description rdf:ID="MODFLOW-2005-RCH_node_heads_role">
                                                            <j.0:hasDimensionality
                                                             rdf:datatype=
                                                            "http://www.w3.org/2001/XMLSchema#integer"
                                                            >0</j.0:hasDimensionality>
                                                            <j.0:hasRoleID
                                                             rdf:datatype=
                                                            "http://www.w3.org/2001/XMLSchema#string"
                                                            >heads</j.0:hasRoleID>
                                                      </rdf:Description>
                                                </j.0:satisfiesRole>
                                          </j.0:Port>
                                    </j.0:hasOutputPort>
                                    <j.0:hasInputPort rdf:resource="#MODFLOW-2005-RCH_node_Recharge"/>
                                    <j.0:hasInputPort rdf:resource="#MODFLOW-2005-RCH_node_Hfb"/>
                                    <j.0:hasInputPort rdf:resource="#MODFLOW-2005-RCH_node_Bcf"/>
                                    <j.0:hasInputPort rdf:resource="#MODFLOW-2005-RCH_node_Dis"/>
                                    <rdfs:comment rdf:datatype=
                                    "http://www.w3.org/2001/XMLSchema#string"
                                    >center:x=337.80086441040044,y=103.33055591583252</rdfs:comment>
                                    <j.0:hasOutputPort>
                                          <j.0:Port rdf:ID="MODFLOW-2005-RCH_node_budget">
                                                <j.0:satisfiesRole>
                                                      <rdf:Description rdf:ID="MODFLOW-2005-RCH_node_budget_role">
                                                            <j.0:hasDimensionality
                                                             rdf:datatype=
                                                            "http://www.w3.org/2001/XMLSchema#integer"
                                                            >0</j.0:hasDimensionality>
                                                            <j.0:hasRoleID
                                                             rdf:datatype=
                                                            "http://www.w3.org/2001/XMLSchema#string"
                                                            >budget</j.0:hasRoleID>
                                                      </rdf:Description>
                                                </j.0:satisfiesRole>
                                          </j.0:Port>
                                    </j.0:hasOutputPort>
                              </j.0:Node>
                        </j.0:hasDestinationNode>
                        <j.0:hasDestinationPort rdf:resource="#MODFLOW-2005-RCH_node_Drn"/>
                  </j.0:InputLink>
            </j.0:hasLink>
            <j.0:hasLink>
                  <j.0:InputLink rdf:ID="MODFLOW-2005-RCH_node_Oc_input">
                        <j.0:hasVariable>
                              <j.0:DataVariable rdf:ID="Oc">
                                    <rdfs:comment rdf:datatype=
                                    "http://www.w3.org/2001/XMLSchema#string"
                                    >center:x=411.4964668273926,y=30.00095272064209</rdfs:comment>
                              </j.0:DataVariable>
                        </j.0:hasVariable>
                        <j.0:hasDestinationNode rdf:resource="#MODFLOW-2005-RCH_node"/>
                        <j.0:hasDestinationPort rdf:resource="#MODFLOW-2005-RCH_node_Oc"/>
                  </j.0:InputLink>
            </j.0:hasLink>
            <j.0:hasLink>
                  <j.0:InputLink rdf:ID="MODFLOW-2005-RCH_node_Bas_input">
                        <j.0:hasVariable>
                              <j.0:DataVariable rdf:ID="Bas">
                                    <rdfs:comment rdf:datatype=
                                    "http://www.w3.org/2001/XMLSchema#string"
                                    >center:x=43.000263571739204,y=30.00095272064209</rdfs:comment>
                              </j.0:DataVariable>
                        </j.0:hasVariable>
                        <j.0:hasDestinationNode rdf:resource="#MODFLOW-2005-RCH_node"/>
                        <j.0:hasDestinationPort rdf:resource="#MODFLOW-2005-RCH_node_Bas"/>
                  </j.0:InputLink>
            </j.0:hasLink>
            <j.0:hasLink>
                  <j.0:InputLink rdf:ID="MODFLOW-2005-RCH_node_Bcf_input">
                        <j.0:hasVariable>
                              <j.0:DataVariable rdf:ID="Bcf">
                                    <rdfs:comment rdf:datatype=
                                    "http://www.w3.org/2001/XMLSchema#string"
                                    >center:x=116.69824285507202,y=30.00095272064209</rdfs:comment>
                              </j.0:DataVariable>
                        </j.0:hasVariable>
                        <j.0:hasDestinationNode rdf:resource="#MODFLOW-2005-RCH_node"/>
                        <j.0:hasDestinationPort rdf:resource="#MODFLOW-2005-RCH_node_Bcf"/>
                  </j.0:InputLink>
            </j.0:hasLink>
            <j.0:hasInputRole>
                  <j.0:Role rdf:ID="Dis_irole">
                        <j.0:hasDimensionality rdf:datatype="http://www.w3.org/2001/XMLSchema#integer"
                        >0</j.0:hasDimensionality>
                        <j.0:mapsToVariable>
                              <j.0:DataVariable rdf:ID="Dis">
                                    <rdfs:comment rdf:datatype=
                                    "http://www.w3.org/2001/XMLSchema#string"
                                    >center:x=190.40176658630372,y=30.00095272064209</rdfs:comment>
                              </j.0:DataVariable>
                        </j.0:mapsToVariable>
                        <j.0:hasRoleID rdf:datatype="http://www.w3.org/2001/XMLSchema#string"
                        >MODFLOW-2005-RCH_node_Dis</j.0:hasRoleID>
                  </j.0:Role>
            </j.0:hasInputRole>
            <j.0:hasNode rdf:resource="#MODFLOW-2005-RCH_node"/>
            <j.0:hasLink>
                  <j.0:OutputLink rdf:ID="MODFLOW-2005-RCH_node_heads_output">
                        <j.0:hasVariable>
                              <j.0:DataVariable rdf:ID="heads">
                                    <rdfs:comment rdf:datatype=
                                    "http://www.w3.org/2001/XMLSchema#string"
                                    >center:x=374.09823341369633,y=176.66591835021973</rdfs:comment>
                              </j.0:DataVariable>
                        </j.0:hasVariable>
                        <j.0:hasOriginNode rdf:resource="#MODFLOW-2005-RCH_node"/>
                        <j.0:hasOriginPort rdf:resource="#MODFLOW-2005-RCH_node_heads"/>
                  </j.0:OutputLink>
            </j.0:hasLink>
            <j.0:hasInputRole>
                  <j.0:Role rdf:ID="Hfb_irole">
                        <j.0:hasDimensionality rdf:datatype="http://www.w3.org/2001/XMLSchema#integer"
                        >0</j.0:hasDimensionality>
                        <j.0:mapsToVariable>
                              <j.0:DataVariable rdf:ID="Hfb">
                                    <rdfs:comment rdf:datatype=
                                    "http://www.w3.org/2001/XMLSchema#string"
                                    >center:x=337.80086441040044,y=30.00095272064209</rdfs:comment>
                              </j.0:DataVariable>
                        </j.0:mapsToVariable>
                        <j.0:hasRoleID rdf:datatype="http://www.w3.org/2001/XMLSchema#string"
                        >MODFLOW-2005-RCH_node_Hfb</j.0:hasRoleID>
                  </j.0:Role>
            </j.0:hasInputRole>
            <j.0:hasLink>
                  <j.0:OutputLink rdf:ID="MODFLOW-2005-RCH_node_list_output">
                        <j.0:hasVariable>
                              <j.0:DataVariable rdf:ID="list">
                                    <rdfs:comment rdf:datatype=
                                    "http://www.w3.org/2001/XMLSchema#string"
                                    >center:x=447.80176658630376,y=176.66591835021973</rdfs:comment>
                              </j.0:DataVariable>
                        </j.0:hasVariable>
                        <j.0:hasOriginNode rdf:resource="#MODFLOW-2005-RCH_node"/>
                        <j.0:hasOriginPort rdf:resource="#MODFLOW-2005-RCH_node_list"/>
                  </j.0:OutputLink>
            </j.0:hasLink>
            <j.0:hasLink>
                  <j.0:InputLink rdf:ID="MODFLOW-2005-RCH_node_Recharge_input">
                        <j.0:hasVariable>
                              <j.0:DataVariable rdf:ID="Recharge">
                                    <rdfs:comment rdf:datatype=
                                    "http://www.w3.org/2001/XMLSchema#string"
                                    >center:x=492.89823341369635,y=30.00095272064209</rdfs:comment>
                              </j.0:DataVariable>
                        </j.0:hasVariable>
                        <j.0:hasDestinationNode rdf:resource="#MODFLOW-2005-RCH_node"/>
                        <j.0:hasDestinationPort rdf:resource="#MODFLOW-2005-RCH_node_Recharge"/>
                  </j.0:InputLink>
            </j.0:hasLink>
            <j.0:hasOutputRole>
                  <j.0:Role rdf:ID="budget_orole">
                        <j.0:hasDimensionality rdf:datatype="http://www.w3.org/2001/XMLSchema#integer"
                        >0</j.0:hasDimensionality>
                        <j.0:mapsToVariable>
                              <j.0:DataVariable rdf:ID="budget">
                                    <rdfs:comment rdf:datatype=
                                    "http://www.w3.org/2001/XMLSchema#string"
                                    >center:x=226.69911670684817,y=176.66591835021973</rdfs:comment>
                              </j.0:DataVariable>
                        </j.0:mapsToVariable>
                        <j.0:hasRoleID rdf:datatype="http://www.w3.org/2001/XMLSchema#string"
                        >budget</j.0:hasRoleID>
                  </j.0:Role>
            </j.0:hasOutputRole>
            <j.0:hasInputRole>
                  <j.0:Role rdf:ID="Oc_irole">
                        <j.0:hasDimensionality rdf:datatype="http://www.w3.org/2001/XMLSchema#integer"
                        >0</j.0:hasDimensionality>
                        <j.0:mapsToVariable rdf:resource="#Oc"/>
                        <j.0:hasRoleID rdf:datatype="http://www.w3.org/2001/XMLSchema#string"
                        >MODFLOW-2005-RCH_node_Oc</j.0:hasRoleID>
                  </j.0:Role>
            </j.0:hasInputRole>
            <j.0:hasOutputRole>
                  <j.0:Role rdf:ID="list_orole">
                        <j.0:hasDimensionality rdf:datatype="http://www.w3.org/2001/XMLSchema#integer"
                        >0</j.0:hasDimensionality>
                        <j.0:mapsToVariable rdf:resource="#list"/>
                        <j.0:hasRoleID rdf:datatype="http://www.w3.org/2001/XMLSchema#string"
                        >list</j.0:hasRoleID>
                  </j.0:Role>
            </j.0:hasOutputRole>
            <j.0:hasMetadata>
                  <j.0:Metadata rdf:ID="testBS_meta">
                        <j.0:hasContributor rdf:datatype="http://www.w3.org/2001/XMLSchema#string"
                        >admin</j.0:hasContributor>
                        <j.0:lastUpdateTime rdf:datatype="http://www.w3.org/2001/XMLSchema#dateTime"
                        >2018-08-10T00:00:00Z</j.0:lastUpdateTime>
                  </j.0:Metadata>
            </j.0:hasMetadata>
            <j.0:hasOutputRole>
                  <j.0:Role rdf:ID="ddown_orole">
                        <j.0:hasDimensionality rdf:datatype="http://www.w3.org/2001/XMLSchema#integer"
                        >0</j.0:hasDimensionality>
                        <j.0:mapsToVariable>
                              <j.0:DataVariable rdf:ID="ddown">
                                    <rdfs:comment rdf:datatype=
                                    "http://www.w3.org/2001/XMLSchema#string"
                                    >center:x=300.40263099670415,y=176.66591835021973</rdfs:comment>
                              </j.0:DataVariable>
                        </j.0:mapsToVariable>
                        <j.0:hasRoleID rdf:datatype="http://www.w3.org/2001/XMLSchema#string"
                        >ddown</j.0:hasRoleID>
                  </j.0:Role>
            </j.0:hasOutputRole>
            <j.0:hasInputRole>
                  <j.0:Role rdf:ID="Drn_irole">